 /*--------------------------------*- C++ -*----------------------------------*\
  =========                 |
  \\      /  F ield         | OpenFOAM: The Open Source CFD Toolbox
   \\    /   O peration     | Website:  https://openfoam.org
    \\  /    A nd           | Version:  11
     \\/     M anipulation  |
\*---------------------------------------------------------------------------*/
FoamFile
{
    format      ascii;
    class       dictionary;
    location    "system";
    object      fvSchemes;
}
// * * * * * * * * * * * * * * * * * * * * * * * * * * * * * * * * * * * * * //

ddtSchemes
{
    default         Euler;
}

gradSchemes
{
    default         Gauss linear;
    grad(k)         cellLimited Gauss linear 1;
    grad(epsilon)   cellLimited Gauss linear 1;
}

divSchemes
{
    default             none;

    div(rhoPhi,U)       Gauss linearUpwind grad(U);
    div(tauDm)          Gauss linear;

    div(phi,alpha)      Gauss vanLeer;

    div(rhoPhi,k)       Gauss limitedLinear 1;
    div(rhoPhi,epsilon) Gauss limitedLinear 1;

    div(((rho*nuEff)*dev2(T(grad(U))))) Gauss linear;
    div(phi,symm(grad(U))) Gauss linear;
}

laplacianSchemes
{
    default         Gauss linear limited corrected 0.5;
}

interpolationSchemes
{
    default         linear;
}

snGradSchemes
{
    default         limited corrected 0.5;
}

// ************************************************************************* //
